test/test_files/validation_tests/case2868rte_res.m
function mpc = case2868rte_res
%CASE2868RTE_RES

%% MATPOWER Case Format : Version 2
mpc.version = '2';

%%-----  Power Flow Data  -----%%
%% system MVA base
mpc.baseMVA = 100;

%% bus data
%    bus_i    type    Pd    Qd    Gs    Bs    area    Vm    Va    baseKV    zone    Vmax    Vmin
mpc.bus = [
    1    1    -18.5    0    0    0    1    1.03957655    -13.0111353    63    1    1.06349    0.936508;
    2    1    11.8    0.6    0    0    1    1.06518648    -13.6051692    225    1    1.08889    0.888889;
    3    1    0    0    0    0    1    1.08941554    -4.75059826    380    1    1.10263    1;
    4    1    0    0    0    0    1    1.00539906    -21.1596057    63    1    1.07937    0.920635;
    5    1    0.2    -0.2    0    0    1    0.942373277    -9.30092954    45    1    1    0.888889;
    6    1    5.6    -19    0    0    1    0.943129044    -9.33740477    45    1    1    0.888889;
    7    1    223.6    7.6    0    0    1    1.06739634    -11.5320549    225    1    1.08444    1;
    8    1    68.6    7.6    0    0    1    1.01053032    -19.7529896    63    1    1.06349    0.968254;
    10    1    0    0    0    0    1    1.05698142    -7.91471633    150    1    1.10667    0.9;
    11    1    49.1    0.9    0    0    1    1.0488957    -10.7284444    225    1    1.08889    0.933333;
    2571    1    34    14.4    0    0    1    1.04731521    -11.6628163    225    1    1.08889    0.933333;
    12    1    0    0    0    0    1    1.05743958    -10.8542203    380    1    1.10526    1;
    2572    1    0    0    0    0    1    1.06317975    -10.3773542    380    1    1.10526    1;
    13    1    0    0    0    0    1    1.0612272    -21.0394837    225    1    1.09067    1;
    14    1    0.2    -1.1    0    0    1    1.00073528    -19.7249175    63    1    1.06349    0.936508;
    15    1    10.3    -0.2    0    0    1    1.01021045    -17.1068938    63    1    1.06349    0.936508;
    16    1    189.8    54.4    0    0    1    1.03360337    -15.4262953    225    1    1.08889    0.933333;
    17    1    54.5    13.1    0    0    1    1.07439486    -22.3601593    225    1    1.08889    1;
    18    1    67.6    23.2    0    0    1    1.06829594    -19.5969698    225    1    1.08962    1;
    19    2    0    0    0    0    1    1.032    -15.107511    63    1    1.08661    0.920635;
    20    1    150.5    40    0    0    1    1.0741706    -22.3609337    225    1    1.08889    1;
    21    1    78.1    6.2    0    0    1    1.0783866    -10.6541736    225    1    1.08889    0.888889;
    22    1    15    -9.4    0    0    1    0.990739884    -25.2295286    63    1    1.07249    0.936508;
    23    1    50.9    6    0    0    1    1.004058    -18.5574126    63    1    1.06349    0.936508;
    24    1    0    0    0    0    1    1.08737151    -7.2952325    225    1    1.08889    1;
    2573    1    0    0    0    0    1    1.08737109    -7.29522968    225    1    1.08889    1;
    25    1    65.1    1.6    0    0    1    1.07854285    -10.651115    225    1    1.08889    0.888889;
    26    1    1.6    -4.2    0    0    1    1.07601302    -4.37622142    225    1    1.09649    0.986667;
    27    1    42.8    2.3    0    0    1    1.01549156    -18.6124717    63    1    1.06349    0.936508;
    28    1    39.4    15.5    0    0    1    1.05114047    -20.7215659    225    1    1.08889    1;
    2574    1    42.2    12.4    0    0    1    1.05112285    -20.7219236    225    1    1.08889    1;
    29    1    11.4    0.5    0    0    1    1.00541664    -16.9770664    63    1    1.06349    0.936508;
    30    1    72.7    36.5    0    0    1    1.06339182    -19.1966909    225    1    1.08889    1;
    31    1    2.7    -1.4    0    0    1    1.0437316    -14.8387418    63    1    1.07211    0.936508;
    32    1    13.8    -0.4    0    0    1    1.02956918    -20.1028919    63    1    1.06349    0.936508;
    33    1    2    -0.5    0    0    1    0.937253696    -9.98190213    45    1    1    0.888889;
    34    1    0.4    0    0    0    1    0.942107891    -9.33095221    45    1    1    0.888889;
    35    1    30.4    3    0    0    1    1.02443432    -18.3951175    63    1    1.06349    0.968254;
    36    1    1.9    -3.1    0    0    1    0.975208152    -12.4965221    45    1    1    0.888889;
    37    1    18.9    0.9    0    0    1    0.994809576    -16.3207117    63    1    1.06349    0.936508;
    38    2    0    0    0    0    1    1.036    -12.9587755    63    1    1.07937    0.952381;
    39    1    99.3    18.8    0    0    1    1.04891471    -13.0865811    225    1    1.08934    0.986667;
    40    1    38.7    0.9    0    0    1    1.06144793    -12.2332706    225    1    1.08889    0.888889;
    41    1    89.8    13    0    0    1    1.06211207    -28.2338738    225    1    1.08444    1;
    42    1    63.9    9.7    0    0    1    1.02357689    -14.2857707    63    1    1.0637    0.936508;
    43    1    0    0    0    0    1    1.0442622    -12.0008146    225    1    1.08889    0.933333;
    44    1    33.1    -6.5    0    0    1    1.02689154    -18.3999112    63    1    1.06349    0.968254;
    45    1    168.4    34.9    0    0    1    1.0551274    -18.9138896    225    1    1.08889    1;
    46    1    0    0    0    0    1    1.08952723    -4.74289927    380    1    1.10526    1;
    2575    1    0    0    0    0    1    1.0895249    -4.73915619    380    1    1.10526    1;
    47    1    29.5    4.5    0    0    1    1.02949954    -11.2316773    63    1    1.06606    0.936508;
    48    1    1.6    0    0    0    1    1.03887642    -15.2889974    63    1    1.06735    0.936508;
    49    1    14.9    10.4    0    0    1    1.05539157    -11.0628202    63    1    1.06349    0.968254;
    2576    1    9.9    7.2    0    0    1    1.05265222    -11.8676344    63    1    1.06349    0.968254;
    50    1    0    0    0    0    1    1.07730094    -9.16963415    225    1    1.08444    1;
    51    1    114.9    20.2    0    0    1    1.07093641    -15.1497017    225    1    1.08444    1;
    52    1    0    0    0    0    1    1.07545547    -22.1858709    225    1    1.08889    1;
    2942    1    106    29.6    0    0    1    1.03659303    -21.1133457    225    1    1.08889    1;
    53    2    5.7    -6.6    0    0    1    1.038    -11.4311094    63    1    1.06349    0.968254;
    54    1    0    0    0    0    1    1.0682061    -11.2867084    150    1    1.08    0.966667;
    55    1    65.6    18    0    80    1    1.02340523    -7.54894479    225    1    1.09459    1;
    56    1    0    0    0    0    1    1.03781034    -4.80918038    380    1    1.10526    1;
    57    1    146.4    39.1    0    0    1    1.02132387    -17.9510217    225    1    1.08889    0.986667;
    59    1    78.7    21.1    0    0    1    1.07955302    -10.4371067    225    1    1.08889    0.968889;
    60    1    125.2    37.6    0    0    1    1.08485726    -8.23165199    380    1    1.10526    1;
    61    1    6    1    0    0    1    1.03146229    -15.6953609    63    1    1.06349    0.936508;
    63    1    36.1    4.7    0    7.7    1    1.01029862    -20.2681816    63    1    1.06349    0.968254;
    2577    1    0    0    0    0    1    1.01030231    -21.5337221    63    1    1.06349    0.968254;
    64    1    53.3    13.4    0    0    1    1.05292068    -12.8718026    225    1    1.08889    0.933333;
    65    1    0    0    0    0    1    1.01027587    -21.5377431    63    1    1.06349    0.968254;
    66    1    43.4    -0.7    0    0    1    0.933042416    -13.5245227    45    1    1    0.888889;
    2578    2    0    0    0    0    1    0.958    -13.5650268    45    1    1    0.888889;
    67    1    41.3    12.8    0    0    1    1.06671919    -11.0689115    225    1    1.08889    0.888889;
    2579    1    38.5    8.5    0    0    1    1.06691286    -11.0636528    225    1    1.08889    0.888889;
    68    1    19.6    3.7    0    0    1    1.06952561    -18.6087406    20    1    1.2    0.8;
    69    1    320.7    74.9    0    0    1    1.06956902    -18.60068    225    1    1.08685    1;
    70    1    140.9    -22.3    0    0    1    1.06895289    -20.8942074    225    1    1.08889    1;
    71    2    0    0    0    0    1    1.091    -12.7113775    150    1    1.10885    0.9;
    72    1    0    0    0    0    1    1.04879807    -20.8608924    225    1    1.08889    1;
    2580    1    0    0    0    0    1    1.04879785    -20.8608912    225    1    1.08889    1;
    74    1    0    0    0    0    1    1.04879659    -20.8608842    225    1    1.08889    1;
    75    1    15.6    3    0    0    1    1.03025319    -12.7426292    63    1    1.06349    0.936508;
    76    2    0    0    0    0    1    0.936    -9.41128233    45    1    1    0.888889;
    77    1    6.4    0.3    0    0    1    1.02620571    -16.13376    63    1    1.08481    0.920635;
    78    1    4.8    2.4    0    0    1    1.05507499    -19.4754964    225    1    1.08889    1;
    79    1    17.4    1.7    0    15    1    1.01232083    -27.6066706    63    1    1.07937    0.920635;
    80    1    10    -0.6    0    0    1    1.04752452    -19.7805908    63    1    1.08744    0.920635;
    81    1    0    0    0    0    1    1.0457556    -17.5459384    225    1    1.08889    1;
    82    1    63.1    25.3    0    0    1    1.05797107    -12.6007156    225    1    1.08889    0.888889;
    83    1    44.1    1.9    0    0    1    0.997327765    -25.9889941    63    1    1.06349    0.967399;
    84    1    162.3    51.1    0    0    1    1.07049383    -8.15108382    225    1    1.08889    0.968889;
    85    1    0    0    0    0    1    1.0860567    -5.01512762    380    1    1.10526    1;
    86    1    58.3    14.1    0    0    1    1.00695787    -23.5912689    63    1    1.06349    0.968254;
    87    1    32.5    4.6    0    0    1    0.999982392    -13.8517062    63    1    1.06349    0.968254;
    88    1    1.5    0.7    0    0    1    1.02997966    -16.6408389    63    1    1.06349    0.968254;
    89    1    55.7    8.3    0    0    1    1.02227792    -14.2907467    63    1    1.06349    0.968254;
    2581    1    30.1    12.2    0    0    1    1.02264817    -14.0676323    63    1    1.06349    0.968254;
    90    1    0    0    0    0    1    1.06819817    -13.9967504    225    1    1.08444    1;
    2582    1    0    0    0    0    1    1.06814494    -14.0264714    225    1    1.08444    1;
    91    1    190.1    8    0    0    1    1.0609786    -20.5117281    225    1    1.08889    1;
    92    1    36.8    -8.5    0    0    1    1.07027432    -10.2362826    225    1    1.09041    0.933333;
    93    2    0    0    0    0    1    1.09049665    -12.7689106    150    1    1.10907    0.9;
    94    1    35.7    55.7    0    0    1    1.07963696    -13.1274556    225    1    1.08444    1;
    2583    1    34    3.2    0    0    1    1.08045847    -13.1341806    225    1    1.08444    1;
    95    1    0    0    0    0    1    1.07859981    -13.4423401    225    1    1.08889    0.977778;
    96    1    15.9    4.1    0    0    1    1.06151729    -11.3464324    225    1    1.08889    0.888889;
    97    1    40.4    6.5    0    0    1    1.00683438    -21.8337772    63    1    1.06349    0.968254;
    98    1    -3.5    -1.6    0    0    1    1.05274446    -10.4769324    225    1    1.08889    0.933333;
    99    1    18.2    5.5    0    0    1    1.06126272    -21.0762065    225    1    1.08889    1;
    2584    1    33.2    14.1    0    0    1    1.06717707    -19.8514401    225    1    1.08889    1;
    100    1    -17.2    -4.3    0    0    1    1.04539812    -17.7392988    225    1    1.08889    1;
    101    1    24.4    1.9    0    0    1    1.06350639    -14.128083    225    1    1.08889    0.986667;
    102    1    0    0    0    80    1    1.0729128    -10.7856162    225    1    1.08889    0.888889;
    2585    1    0    0    0    0    1    1.06407719    -11.6498891    225    1    1.08889    0.888889;
    103    1    0    0    0    0    1    1.07696474    -7.33848757    380    1    1.10526    1;
    104    1    74.9    14.3    0    0    1    1.05011822    -20.9495225    225    1    1.08889    1;
    2586    1    29    6.8    0    0    1    1.0645714    -19.9635123    225    1    1.08889    1;
    105    1    11.4    9.2    0    0    1    1.00297235    -17.1362932    63    1    1.07937    0.920635;
    106    1    0    0    0    0    1    1.07060038    -10.2762424    225    1    1.08889    0.977778;
    2587    1    0    0    0    0    1    1.070607    -10.276139    225    1    1.08889    0.977778;
    107    1    5.7    10.3    0    0    1    1.03897502    -14.3975072    63    1    1.06349    0.968254;
    108    1    54.1    1.9    0    0    1    1.06844885    -10.9847814    225    1    1.08444    1;
    109    1    0    0    0    0    1    1.0766302    -14.2471297    225    1    1.08444    1;
    110    1    0    0    0    0    1    1.09334725    -8.51765667    380    1    1.10263    1;
    111    1    103.3    18    0    0    1    1.07631683    -14.3034686    225    1    1.08444    1;
    112    1    -1.5    2.2    0    0    1    1.0693145    -19.4309313    225    1    1.09035    1;
    2588    1    16.5    -0.1    0    0    1    1.06927818    -19.4408115    225    1    1.09035    1;
    113    1    47    9.8    0    0    1    1.08201018    -4.79130966    225    1    1.08889    0.888889;
    114    1    43.8    0.6    0    0    1    1.02403199    -16.8692967    63    1    1.06349    0.936508;
    115    1    16.4    1.2    0    0    1    1.06908523    -11.7335526    225    1    1.08889    0.888889;
    116    1    56.9    18.9    0    0    1    1.07289125    -6.93014012    225    1    1.08889    0.888889;
    117    1    3.2    0.4    0    0    1    1.01482629    -14.0493613    63    1    1.06349    0.968254;
    118    1    44    10    0    0    1    0.988975281    -29.9923532    63    1    1.07937    0.920635;
    119    1    28.5    -5.1    0    0    1    1.02799934    -21.5563898    63    1    1.06349    0.968254;
    120    2    0    0    0    0    1    1.049    -15.2172408    63    1    1.06863    0.936508;
    121    1    8.5    3.1    0    0    1    1.02506978    -25.803877    63    1    1.06349    0.968254;
    2589    1    15    6.8    0    0    1    1.02513219    -25.8354311    63    1    1.06349    0.968254;
    122    1    142.7    -26.6    0    0    1    1.05325884    -12.7327588    225    1    1.08889    1;
    123    1    32.4    7.9    0    0    1    1.01504148    -23.6910694    63    1    1.07937    0.920635;
    124    2    4.7    -2    0    0    1    1.022    -17.1073583    63    1    1.08203    0.920635;
    125    1    0    0    0    0    1    1.03819305    -21.6544359    63    1    1.07937    0.920635;
    126    1    0    0    0    0    1    1.02525626    -13.1734522    225    1    1.08889    1;
    127    1    0    0    0    0    1    1.06371873    -13.1881252    380    1    1.10526    1;
    128    1    26.4    3.8    0    0    1    1.03632416    -13.4240941    63    1    1.06349    0.936508;
    129    2    16.3    7.5    0    0    1    1.037    -16.1166699    63    1    1.06349    0.936508;
    130    1    10.9    16.3    0    0    1    1.04786668    -17.7778124    63    1    1.07937    0.920635;
    2955    1    0    0    0    0    1    1.02398063    -20.068129    63    1    1.07937    0.920635;
    131    1    0    0    0    0    1    1.05392318    -15.9072168    225    1    1.08889    1;
    132    1    139.1    40    0    0    1    1.04906517    -17.2738231    225    1    1.08889    1;
    133    2    9.2    3.6    0    0    1    1.008    -29.2059799    63    1    1.06538    0.968254;
    134    2    0    0    0    0    1    1.015    -21.7576146    150    1    1.08    0.966667;
    135    2    -14.9    -4.8    0    0    1    1.053    -19.687646    63    1    1.07937    0.920635;
    136    1    31.7    10.2    0    0    1    1.04848858    -12.5929652    225    1    1.08889    0.986667;
    137    1    9.7    -2.1    0    0    1    1.0189186    -13.8856047    63    1    1.06349    0.968254;
    138    1    12.8    5.8    0    0    1    1.06298776    -8.89881939    225    1    1.08444    1;
    140    1    0    0    0    0    1    1.09861949    -4.14463175    380    1    1.10526    1;
    2590    1    0    0    0    0    1    1.09941721    -4.06306633    380    1    1.10526    1;
    141    1    20.8    1.1    0    0    1    1.05583997    -11.4997909    225    1    1.08889    1;
    142    1    10.3    9.6    0    0    1    1.06628538    -16.5845916    225    1    1.08889    1;
    143    1    28.7    2.3    0    0    1    1.0197961    -21.5750362    63    1    1.06349    0.968254;
    144    1    82.9    11.1    0    0    1    1.07594805    -15.5306056    150    1    1.1    0.9;
    145    1    72.9    0.2    0    0    1    1.04830008    -13.922549    225    1    1.08925    1;
    146    2    -3.7    -0.5    0    0    1    1.051    -20.7629627    225    1    1.08889    1;
    147    1    0    0    0    0    1    1.04837328    -10.6411355    225    1    1.08889    0.933333;
    148    1    0    0    0    0    1    1.06319621    -10.3214042    380    1    1.10526    1;
    2591    1    0    0    0    0    1    1.05743298    -10.7718147    380    1    1.10526    1;
    149    1    0    0    0    0    1    1.07475627    -22.3348053    225    1    1.08889    1;
    2592    1    66.1    19.5    0    0    1    1.03476256    -21.3579635    225    1    1.08889    1;
    150    1    0    0    0    0    1    1.02227111    -11.260583    225    1    1.08889    0.986667;
    151    1    24    9.7    0    0    1    1.0745798    -22.3477116    225    1    1.08889    1;
    153    1    137.1    23.1    0    0    1    1.030028    -10.6502064    225    1    1.08889    0.933333;
    154    1    0    0    0    0    1    1.06646014    -7.36706696    380    1    1.10526    1;
    155    1    55.3    18.4    0    0    1    1.05886329    -10.839479    225    1    1.08889    1;
    156    1    30.9    4.2    0    0    1    1.04720268    -16.536765    63    1    1.06503    0.936508;
    157    1    2.4    0.4    0    0    1    1.03708773    -14.879738    63    1    1.06349    0.968254;
    158    1    27.5    2.2    0    0    1    1.01715932    -21.4099244    63    1    1.07937    0.920635;
    159    1    24.3    1.9    0    0    1    1.0062243    -24.2199348    63    1    1.06349    0.968254;
    160    1    5.6    3    0    0    1    1.02021764    -18.0965545    63    1    1.06349    0.936508;
    161    2    0    0    0    0    1    1.065    -21.577635    63    1    1.15    0.8;
    162    1    0.5    -40.5    0    0    1    1.07243861    -20.0070941    225    1    1.09053    1;
    163    1    0    0    0    0    1    1.02282737    -31.3729705    63    1    1.06349    0.968254;
    164    1    109.3    -1.7    0    0    1    1.04468016    -11.8119532    225    1    1.09791    1;
    165    1    187.3    17.6    0    0    1    1.05306887    -8.760606    225    1    1.08889    0.986667;
    166    1    51.6    6.2    0    0    1    1.03304695    -16.9614243    63    1    1.06349    0.968254;
    167    1    119.3    36.7    0    0    1    1.06123503    -21.0343517    225    1    1.09067    1;
    168    1    14.1    -5.7    0    0    1    1.00522034    -16.5302211    63    1    1.06349    0.936508;
    169    1    24.1    -4.6    0    0    1    1.02671007    -16.2554897    63    1    1.06349    0.968254;
    170    1    1.8    0.3    0    0    1    1.03256457    -16.1939542    63    1    1.06822    0.936508;
    171    1    181.5    51.4    0    0    1    1.05498233    -13.048966    225    1    1.08889    0.924444;
    172    2    -0    1.2    0    0    1    1.00941697    -12.5888057    63    1    1.06349    0.968254;
    173    1    82.5    15.9    0    0    1    1.0890222    -2.96146983    225    1    1.09616    0.986667;
    174    1    0    0    0    0    1    1.09572566    -1.93078031    380    1    1.10526    1;
    2998    1    0    0    0    0    1    1.09663606    -1.38977657    380    1    1.10526    1;
    175    1    120.7    -49.6    0    0    1    1.06611491    -23.374811    225    1    1.08444    1;
    177    1    0    0    0    0    1    1.01660286    -28.1748015    63    1    1.06349    0.960855;
    178    1    0    0    0    0    1    1.06625606    -26.912659    225    1    1.08444    1;
    179    1    0    0    0    0    1    1.058225    -24.1554343    380    1    1.10263    1;
    180    1    5    0.6    0    0    1    1.03001434    -10.6782887    225    1    1.08889    0.933333;
    181    1    -3    -14.3    0    0    1    0.982458652    -9.71307428    45    1    1.01652    0.888889;
    182    1    0    0    0    0    1    1.03174951    -15.6595317    63    1    1.06349    0.936508;
...
];

%% generator data
%    bus    Pg    Qg    Qmax    Qmin    Vg    mBase    status    Pmax    Pmin    Pc1    Pc2    Qc1min    Qc1max    Qc2min    Qc2max    ramp_agc    ramp_10    ramp_30    ramp_q    apf
mpc.gen = [
    1279    0    0    15    -15    1.029    100    0    35    7    0    0    0    0    0    0    0    0    0    0    0;
    1210    24.74    0.74915995    20    -15    1.023    100    1    36.1    7.22    0    0    0    0    0    0    0    0    0    0    0;
    751    44    -6.5217684    21    -9    1.035    100    1    46    9.2    0    0    0    0    0    0    0    0    0    0    0;
    2777    1.93    0.239498558    0.1    -0.1    1.102    100    1    4    0    0    0    0    0    0    0    0    0    0    0    0;
    2777    6    1.06974928    1    0.9    1.102    100    1    7    1.4    0    0    0    0    0    0    0    0    0    0    0;
    978    6.41    -0.0150429039    4    -7    1.113    100    1    12    2.4    0    0    0    0    0    0    0    0    0    0    0;
    158    0.45    0    0    0    1.024    100    1    2.7    0    0    0    0    0    0    0    0    0    0    0    0;
    1217    12    0.584786274    5    -5    1.017    100    1    13    2.6    0    0    0    0    0    0    0    0    0    0    0;
    367    48    2.31877256    27    -9    0.995    100    1    50    10    0    0    0    0    0    0    0    0    0    0    0;
    1127    7.1    0    0    0    1.001    100    1    16    3.2    0    0    0    0    0    0    0    0    0    0    0;
    460    0    0    40    -40    1.065    100    0    62    12.4    0    0    0    0    0    0    0    0    0    0    0;
    968    10.14    -0.740889522    10    -10    1.07    100    1    18    3.6    0    0    0    0    0    0    0    0    0    0    0;
    1827    21    -59.3310079    7    -12    1.065    100    1    22    4.4    0    0    0    0    0    0    0    0    0    0    0;
    1466    38    2.71379095    5    -15    1.05    100    1    40    1    0    0    0    0    0    0    0    0    0    0    0;
    2863    26.2    -8.82011654    6    -6    0.987    100    1    40    1    0    0    0    0    0    0    0    0    0    0    0;
    1466    38    2.71379095    5    -15    1.05    100    1    40    1    0    0    0    0    0    0    0    0    0    0    0;
    2863    26.2    -8.82011654    6    -6    0.987    100    1    40    1    0    0    0    0    0    0    0    0    0    0    0;
    1072    0    0    1    0.9    1.091    100    0    12    2.4    0    0    0    0    0    0    0    0    0    0    0;
    1072    0    0    1    0.9    1.091    100    0    14    2.8    0    0    0    0    0    0    0    0    0    0    0;
    1072    0    0    1    0.9    1.091    100    0    12    2.4    0    0    0    0    0    0    0    0    0    0    0;
    642    -3.26    1.14    3    -3    1.029    100    1    10.33    2.07    0    0    0    0    0    0    0    0    0    0    0;
    642    -4.23    -0.44    3    -3    1.029    100    1    10.33    2.07    0    0    0    0    0    0    0    0    0    0    0;
    542    5    1.28324227    22    -10    1.019    100    1    50    5    0    0    0    0    0    0    0    0    0    0    0;
    773    -5.36    0    0    0    1.033    100    1    12    2.4    0    0    0    0    0    0    0    0    0    0    0;
    399    3.01    0    0    0    0.985    100    1    13.8    2.76    0    0    0    0    0    0    0    0    0    0    0;
    399    1.2    0    0    0    0.985    100    1    1.2    0    0    0    0    0    0    0    0    0    0    0    0;
    21    16.33    0    0    0    1.079    100    1    24    4.8    0    0    0    0    0    0    0    0    0    0    0;
    21    23.1    0    0    0    1.079    100    1    27.6    5.52    0    0    0    0    0    0    0    0    0    0    0;
    899    -0.61    0    0    0    1.044    100    1    18    3.6    0    0    0    0    0    0    0    0    0    0    0;
    899    -1.56    0    0    0    1.044    100    1    21    4.2    0    0    0    0    0    0    0    0    0    0    0;
    2618    1.2    0    0    0    1.032    100    1    6    1.2    0    0    0    0    0    0    0    0    0    0    0;
    2618    31.36    4.14939532    10    -6    1.032    100    1    37.5    7.5    0    0    0    0    0    0    0    0    0    0    0;
    285    1.2    0    0    0    1.032    100    1    6    1.2    0    0    0    0    0    0    0    0    0    0    0;
    285    36    1.59248811    10    -6    1.032    100    1    37.5    7.5    0    0    0    0    0    0    0    0    0    0    0;
    135    8.82    9.23584253    5    -6    1.053    100    1    13    2.6    0    0    0    0    0    0    0    0    0    0    0;
    53    9.25    -1.49798404    0.8    -0.8    1.038    100    1    18    3.6    0    0    0    0    0    0    0    0    0    0    0;
    53    17    -1.49798404    0.8    -0.8    1.038    100    1    18    3.6    0    0    0    0    0    0    0    0    0    0    0;
    596    1.99    0    0    0    1.069    100    1    4    0    0    0    0    0    0    0    0    0    0    0    0;
    958    -0.45    0    0    0    0.999    100    1    4.6    0    0    0    0    0    0    0    0    0    0    0    0;
    1679    17.64    1.8927439    6    -4    1.048    100    1    21    4.2    0    0    0    0    0    0    0    0    0    0    0;
    1679    9.54    2.09987317    6.7    -4.5    1.048    100    1    21    4.2    0    0    0    0    0    0    0    0    0    0    0;
    1157    -1.68    0    0    0    1.012    100    1    7.2    1.44    0    0    0    0    0    0    0    0    0    0    0;
    513    0    0    5    1    1.008    100    0    11    2.2    0    0    0    0    0    0    0    0    0    0    0;
    513    0    0    5    1    1.008    100    0    11    2.2    0    0    0    0    0    0    0    0    0    0    0;
    371    6.54    2.44937589    5    -5    1.04    100    1    8    1.6    0    0    0    0    0    0    0    0    0    0    0;
    371    3.34    2.44937589    5    -5    1.04    100    1    8    1.6    0    0    0    0    0    0    0    0    0    0    0;
    976    29.37    -15.624108    12    -15    1.008    100    1    35    7    0    0    0    0    0    0    0    0    0    0    0;
    976    26.73    -15.624108    12    -15    1.008    100    1    35    7    0    0    0    0    0    0    0    0    0    0    0;
    2754    1.42    0    0    0    1.045    100    1    11.5    2.3    0    0    0    0    0    0    0    0    0    0    0;
    749    0    0    5    -5    0.952    100    0    8.5    1.7    0    0    0    0    0    0    0    0    0    0    0;
    1188    19    1.82440906    2    1.9    1.09    100    1    20    4    0    0    0    0    0    0    0    0    0    0    0;
    1254    8.72    4.84850531    7    -7    1.057    100    1    24    4.8    0    0    0    0    0    0    0    0    0    0    0;
    252    2.2    0.36640488    8    -5    0.952    100    1    11    2.2    0    0    0    0    0    0    0    0    0    0    0;
    252    4.45    -0.459195871    6    -5    0.952    100    1    9    1.8    0    0    0    0    0    0    0    0    0    0    0;
    252    4.74    0.36640488    8    -5    0.952    100    1    11    2.2    0    0    0    0    0    0    0    0    0    0    0;
    252    4.47    -0.459195871    6    -5    0.952    100    1    9    1.8    0    0    0    0    0    0    0    0    0    0    0;
    504    12    14.9713289    6.5    -6.5    0.958    100    1    12.4    2.48    0    0    0    0    0    0    0    0    0    0    0;
    115    17.55    0    0    0    1.07    100    1    25.3    5.06    0    0    0    0    0    0    0    0    0    0    0;
    967    0.82    0    0    0    1.071    100    1    2.3    0    0    0    0    0    0    0    0    0    0    0    0;
    1811    4.08    9.14078089    5.5    -5.5    1.047    100    1    9    1.8    0    0    0    0    0    0    0    0    0    0    0;
    2634    10.3    19.5018525    7    -7    1.061    100    1    14    2.8    0    0    0    0    0    0    0    0    0    0    0;
    326    12.39    18.8024043    7    -7    1.059    100    1    14    2.8    0    0    0    0    0    0    0    0    0    0    0;
    1829    10.95    2.31108426    7.7    -7.7    1.033    100    1    12.8    2.56    0    0    0    0    0    0    0    0    0    0    0;
    1314    27.65    0.878595615    19    -19    1.098    100    1    39    7.8    0    0    0    0    0    0    0    0    0    0    0;
    71    15.39    1.17994773    10    -4    1.091    100    1    30    6    0    0    0    0    0    0    0    0    0    0    0;
    93    0    0    2    1.9    1.09    100    0    6    1.2    0    0    0    0    0    0    0    0    0    0    0;
    129    8.67    17.5091487    4    -4    1.037    100    1    11    2.2    0    0    0    0    0    0    0    0    0    0    0;
    1594    2.4    -0.573965389    5    -5    1.015    100    1    12    2.4    0    0    0    0    0    0    0    0    0    0    0;
    1594    8.04    -0.573965389    5    -5    1.015    100    1    12    2.4    0    0    0    0    0    0    0    0    0    0    0;
    1354    3.34    4.80470826    2    -2    1.009    100    1    5    0    0    0    0    0    0    0    0    0    0    0    0;
    1133    9.1    0    0    0    1.006    100    1    17.25    3.45    0    0    0    0    0    0    0    0    0    0    0;
    1405    21.58    0.296008154    12    -8    1.033    100    1    37.8    7.56    0    0    0    0    0    0    0    0    0    0    0;
    2850    21.68    0.299928364    12    -8    1.033    100    1    37.8    7.56    0    0    0    0    0    0    0    0    0    0    0;
    2849    21.44    0.290576227    12    -8    1.033    100    1    37.8    7.56    0    0    0    0    0    0    0    0    0    0    0;
    1122    -0.64    0    0    0    1.037    100    1    6.9    1.38    0    0    0    0    0    0    0    0    0    0    0;
    1708    44.5    0.266311991    27    -9    1.03    100    1    45    44    0    0    0    0    0    0    0    0    0    0    0;
    1708    44.5    0.266311991    27    -9    1.03    100    1    45    44    0    0    0    0    0    0    0    0    0    0    0;
    1658    -8.3    0    0    0    1.035    100    1    29.9    5.98    0    0    0    0    0    0    0    0    0    0    0;
    2884    4.17    0    0    0    1.025    100    1    13.7    2.74    0    0    0    0    0    0    0    0    0    0    0;
    1154    1.99    0    0    0    1.061    100    1    20.8    4.16    0    0    0    0    0    0    0    0    0    0    0;
    231    1.66    -10.214422    8.3    -8.3    1.04    100    1    8.3    1.66    0    0    0    0    0    0    0    0    0    0    0;
    2887    17.93    0.0498124402    7    -3    1.024    100    1    23.7    4.74    0    0    0    0    0    0    0    0    0    0    0;
    2888    18.06    0.0503236613    7    -3    1.024    100    1    23.7    4.74    0    0    0    0    0    0    0    0    0    0    0;
    1666    18.07    0.0503637616    7    -3    1.024    100    1    23.7    4.74    0    0    0    0    0    0    0    0    0    0    0;
    499    16    0.734699073    1    0.9    1.084    100    1    17    3.4    0    0    0    0    0    0    0    0    0    0    0;
    499    1.4    0.734699073    1    0.9    1.084    100    1    7    1.4    0    0    0    0    0    0    0    0    0    0    0;
    499    7.29    0.734699073    1    0.9    1.084    100    1    17    3.4    0    0    0    0    0    0    0    0    0    0    0;
    2709    12.44    0.140542658    4    -4    1.021    100    1    24    4.8    0    0    0    0    0    0    0    0    0    0    0;
    709    14.04    0.186515777    4    -4    1.021    100    1    24    4.8    0    0    0    0    0    0    0    0    0    0    0;
    2710    9.39    0.0691945246    4    -4    1.021    100    1    24    4.8    0    0    0    0    0    0    0    0    0    0    0;
    2708    11.85    0.125074219    4    -4    1.021    100    1    24    4.8    0    0    0    0    0    0    0    0    0    0    0;
    1280    2.05    0    0    0    1.044    100    1    18    3.6    0    0    0    0    0    0    0    0    0    0    0;
    1493    0    0    11    -11    0.951    100    0    18    3.6    0    0    0    0    0    0    0    0    0    0    0;
    745    17.76    -8.71155122    8    -18    0.984    100    1    29    5.8    0    0    0    0    0    0    0    0    0    0    0;
    2727    19.34    -6.26252696    5    -18    0.991    100    1    29    5.8    0    0    0    0    0    0    0    0    0    0    0;
    1445    21.41    0    0    0    1.064    100    1    55    11    0    0    0    0    0    0    0    0    0    0    0;
    316    0    1.21325166    1    0.9    1.109    100    1    5    0    0    0    0    0    0    0    0    0    0    0    0;
    316    6.45    17.1506338    3.14    -3.43    1.109    100    1    9.8    1.96    0    0    0    0    0    0    0    0    0    0    0;
    564    -3.76    0    0    0    1.035    100    1    10    2    0    0    0    0    0    0    0    0    0    0    0;
    1047    -1.41    0    0    0    1.022    100    1    12    2.4    0    0    0    0    0    0    0    0    0    0    0;
    1047    -0.06    0    0    0    1.022    100    1    2    0    0    0    0    0    0    0    0    0    0    0    0;
    1335    0.49    10.5814459    3    -1    1.046    100    1    2    0    0    0    0    0    0    0    0    0    0    0    0;
    2624    19.2    1.48640855    15    -17    1.051    100    1    31    6.2    0    0    0    0    0    0    0    0    0    0    0;
    298    27.16    1.53723832    15    -17    1.05    100    1    31    6.2    0    0    0    0    0    0    0    0    0    0    0;
    298    19.69    1.53723832    15    -17    1.05    100    1    31    6.2    0    0    0    0    0    0    0    0    0    0    0;
    2625    19.04    1.53676643    15    -17    1.05    100    1    31    6.2    0    0    0    0    0    0    0    0    0    0    0;
    2625    27.7    1.53676643    15    -17    1.05    100    1    31    6.2    0    0    0    0    0    0    0    0    0    0    0;
    2624    24.52    1.48640855    15    -17    1.051    100    1    31    6.2    0    0    0    0    0    0    0    0    0    0    0;
    2721    14.43    0.0924448355    0    -0.01    1.03    100    1    24    4.8    0    0    0    0    0    0    0    0    0    0    0;
    2718    4.96    0.143481234    8    -7    1.03    100    1    24    4.8    0    0    0    0    0    0    0    0    0    0    0;
    741    14.36    0.0924617539    8    -7    1.03    100    1    24    4.8    0    0    0    0    0    0    0    0    0    0    0;
    2719    12.97    0.0939090037    8    -7    1.03    100    1    24    4.8    0    0    0    0    0    0    0    0    0    0    0;
    2720    14.29    0.0924840388    8    -7    1.03    100    1    24    4.8    0    0    0    0    0    0    0    0    0    0    0;
    283    16.23    1.2851476    8    -8    1.074    100    1    23.5    4.7    0    0    0    0    0    0    0    0    0    0    0;
    1506    26    -1.44991002    6    -11    1.037    100    1    27    5.4    0    0    0    0    0    0    0    0    0    0    0;
    1506    8.36    -1.44991002    6    -11    1.037    100    1    27    5.4    0    0    0    0    0    0    0    0    0    0    0;
    1847    31    0.256111041    12    -8    1.033    100    1    32    6.4    0    0    0    0    0    0    0    0    0    0    0;
    1398    4.24    0    0    0    1.018    100    1    20.02    4    0    0    0    0    0    0    0    0    0    0    0;
    1398    7.16    0    0    0    1.018    100    1    20.35    4.07    0    0    0    0    0    0    0    0    0    0    0;
    225    9    1.5976894    45    -45    1.046    100    1    45    9    0    0    0    0    0    0    0    0    0    0    0;
    225    37.28    1.5976894    45    -45    1.046    100    1    45    9    0    0    0    0    0    0    0    0    0    0    0;
    1607    -0.18    0    0    0    1.032    100    1    1.74    0    0    0    0    0    0    0    0    0    0    0    0;
    314    17.33    2.05035314    10    -10    0.962    100    1    20    4    0    0    0    0    0    0    0    0    0    0    0;
    2680    200.07    18.0859066    100    -60    1.094    100    1    239    44    0    0    0    0    0    0    0    0    0    0    0;
    582    82    8.39624596    70    -45    0.957    100    1    169    82    0    0    0    0    0    0    0    0    0    0    0;
    2978    82    8.36321604    70    -45    0.957    100    1    169    82    0    0    0    0    0    0    0    0    0    0    0;
    2977    202.54    18.2720805    100    -60    1.094    100    1    239    44    0    0    0    0    0    0    0    0    0    0    0;
    240    232    -29.3525872    80    -75    1.073    100    1    239    47.8    0    0    0    0    0    0    0    0    0    0    0;
    1655    3.07    0    0    0    0.973    100    1    12    2.4    0    0    0    0    0    0    0    0    0    0    0;
    1655    0.49    0    0    0    0.973    100    1    4    0    0    0    0    0    0    0    0    0    0    0    0;
    1150    -1.68    0    0    0    1.058    100    1    54    10.8    0    0    0    0    0    0    0    0    0    0    0;
    1447    6    61.4591452    2    -3    1.063    100    1    7    1.4    0    0    0    0    0    0    0    0    0    0    0;
    906    0    0    8    -8    1.065    100    0    21    4.2    0    0    0    0    0    0    0    0    0    0    0;
    1474    0    0    1    -1    1.023    100    0    2    0    0    0    0    0    0    0    0    0    0    0    0;
    1474    4.62    10.9100048    3    -3    1.023    100    1    8    1.6    0    0    0    0    0    0    0    0    0    0    0;
    1474    1.6    10.9100048    3    -3    1.023    100    1    8    1.6    0    0    0    0    0    0    0    0    0    0    0;
    963    8    -3.59582072    1    -2    1    100    1    8.9    1.78    0    0    0    0    0    0    0    0    0    0    0;
    962    18.18    0    0    0    1.038    100    1    22    4.4    0    0    0    0    0    0    0    0    0    0    0;
    923    11    -2.66348636    5    -5    1.04    100    1    12    2.4    0    0    0    0    0    0    0    0    0    0    0;
    1153    15    3.3336477    17.3    -17.3    1.045    100    1    16    3.2    0    0    0    0    0    0    0    0    0    0    0;
    1153    16    1.92696399    10    -10    1.045    100    1    16.8    3.36    0    0    0    0    0    0    0    0    0    0    0;
    274    5.26    -0.437371373    3.7    -3.7    1.033    100    1    6.7    1.34    0    0    0    0    0    0    0    0    0    0    0;
    274    3.15    -0.354625438    3    -3    1.033    100    1    5.6    1.12    0    0    0    0    0    0    0    0    0    0    0;
    1776    9    5.22113658    5    -5    1.033    100    1    10    2    0    0    0    0    0    0    0    0    0    0    0;
    1776    9    5.22113658    5    -5    1.033    100    1    10    2    0    0    0    0    0    0    0    0    0    0    0;
    2914    9    5.22113658    5    -5    1.033    100    1    10    2    0    0    0    0    0    0    0    0    0    0    0;
    2914    9    5.22113658    5    -5    1.033    100    1    10    2    0    0    0    0    0    0    0    0    0    0    0;
    184    0    0    8    -17    1.067    100    0    23.4    4.68    0    0    0    0    0    0    0    0    0    0    0;
    1657    5.2    -23.9952908    16    -17    1.014    100    1    26    5.2    0    0    0    0    0    0    0    0    0    0    0;
    1657    12.72    -23.9952908    16    -17    1.014    100    1    26    5.2    0    0    0    0    0    0    0    0    0    0    0;
    1761    0.97    -0.681750947    0.1    -0.1    1.091    100    1    2.5    0    0    0    0    0    0    0    0    0    0    0    0;
    1761    0    0    1    0.9    1.091    100    0    11    2.2    0    0    0    0    0    0    0    0    0    0    0;
    1868    6    12.5890337    18    -18    1.04    100    1    30    6    0    0    0    0    0    0    0    0    0    0    0;
    1868    29    12.5890337    18    -18    1.04    100    1    30    6    0    0    0    0    0    0    0    0    0    0    0;
    731    0    0    26    -26    1.038    100    0    43    8.6    0    0    0    0    0    0    0    0    0    0    0;
    2715    0    0    20    -20    1.036    100    0    38    7.6    0    0    0    0    0    0    0    0    0    0    0;
    1263    17.8    -0.295360882    14    -14    1.018    100    1    23.1    4.62    0    0    0    0    0    0    0    0    0    0    0;
    1263    17.8    -0.295360882    14    -14    1.018    100    1    23.1    4.62    0    0    0    0    0    0    0    0    0    0    0;
    161    3.6    0.0945962538    5    -5    1.065    100    1    18    3.6    0    0    0    0    0    0    0    0    0    0    0;
    604    9    -0.450972851    6    -6    1.027    100    1    10.2    2.04    0    0    0    0    0    0    0    0    0    0    0;
    918    22.38    0    0    0    1.051    100    1    26    5.2    0    0    0    0    0    0    0    0    0    0    0;
    1760    10.18    1.28875624    1    -1    1.039    100    1    11.5    2.3    0    0    0    0    0    0    0    0    0    0    0;
    1760    2.3    1.28875624    1    -1    1.039    100    1    11.5    2.3    0    0    0    0    0    0    0    0    0    0    0;
    1414    10.58    0.292987277    7.8    -7.8    1.036    100    1    13    2.6    0    0    0    0    0    0    0    0    0    0    0;
    1414    9.5    0.270449794    7.2    -7.2    1.036    100    1    12    2.4    0    0    0    0    0    0    0    0    0    0    0;
    662    26.44    0.831649994    20    -18    1.018    100    1    40    8    0    0    0    0    0    0    0    0    0    0    0;
    2697    27.23    0.8837767    20    -18    1.018    100    1    40    8    0    0    0    0    0    0    0    0    0    0    0;
    2696    27.22    0.883103863    20    -18    1.018    100    1    40    8    0    0    0    0    0    0    0    0    0    0    0;
    1346    2.4    0.674959265    7    -7    1.028    100    1    12    2.4    0    0    0    0    0    0    0    0    0    0    0;
    1346    2.4    0.674959265    7    -7    1.028    100    1    12    2.4    0    0    0    0    0    0    0    0    0    0    0;
    2622    4.05    0.512351742    26    -26    1.024    100    1    8    1.6    0    0    0    0    0    0    0    0    0    0    0;
    2622    7.45    0.512351742    26    -26    1.024    100    1    15    3    0    0    0    0    0    0    0    0    0    0    0;
    291    10.27    0.242847097    26    -26    1.03    100    1    19    3.8    0    0    0    0    0    0    0    0    0    0    0;
    1490    10    -1.37176796    6.5    -6.5    1.03    100    1    10.6    2.12    0    0    0    0    0    0    0    0    0    0    0;
    1671    20    -2.15763189    15    -15    1.036    100    1    21.4    4.28    0    0    0    0    0    0    0    0    0    0    0;
    1615    25.06    0.0495332872    24    -24    1.028    100    1    39    7.8    0    0    0    0    0    0    0    0    0    0    0;
    1681    10.74    -46.6632861    26.1    -24.36    1.049    100    1    87    17.4    0    0    0    0    0    0    0    0    0    0    0;
    418    15    0.778132876    50    -40    1.061    100    1    75    15    0    0    0    0    0    0    0    0    0    0    0;
    2658    15    0.778132876    50    -40    1.061    100    1    75    15    0    0    0    0    0    0    0    0    0    0    0;
    418    15    0.778132876    50    -40    1.061    100    1    75    15    0    0    0    0    0    0    0    0    0    0    0;
    2658    15    0.778132876    50    -40    1.061    100    1    75    15    0    0    0    0    0    0    0    0    0    0    0;
    461    8.65    -15.0303811    12.42    -11.59    1.049    100    1    41.4    8.28    0    0    0    0    0    0    0    0    0    0    0;
    31    2.27    0    0    0    1.049    100    1    6.68    1.34    0    0    0    0    0    0    0    0    0    0    0;
    236    3    -3.48186068    7    0    1.022    100    1    15    3    0    0    0    0    0    0    0    0    0    0    0;
    236    3    -3.48186068    7    0    1.022    100    1    15    3    0    0    0    0    0    0    0    0    0    0    0;
    1754    0.44    -2.33106868    1    -1    1.017    100    1    1    0    0    0    0    0    0    0    0    0    0    0    0;
    1754    0.44    -2.33106868    1    -1    1.017    100    1    1    0    0    0    0    0    0    0    0    0    0    0    0;
    1754    0.44    -2.33106868    1    -1    1.017    100    1    1    0    0    0    0    0    0    0    0    0    0    0    0;
    898    0.25    0    0    0    1.036    100    1    1.7    0    0    0    0    0    0    0    0    0    0    0    0;
    898    2.8    0    0    0    1.036    100    1    22.6    4.52    0    0    0    0    0    0    0    0    0    0    0;
    120    13.01    1.87517221    9    -9    1.049    100    1    15    3    0    0    0    0    0    0    0    0    0    0    0;
    549    5    -2.30074278    22    -10    1.02    100    1    50    5    0    0    0    0    0    0    0    0    0    0    0;
    77    -2.48    0    0    0    1.026    100    1    23.5    4.7    0    0    0    0    0    0    0    0    0    0    0;
    124    -3.56    0.118694916    0    0    1.022    100    1    0    -7    0    0    0    0    0    0    0    0    0    0    0;
    124    -3.56    0.118694916    0    0    1.022    100    1    0    -7    0    0    0    0    0    0    0    0    0    0    0;
    552    12.12    0    0    0    1.018    100    1    21    4.2    0    0    0    0    0    0    0    0    0    0    0;
    1858    8.64    -0.349303115    6    -6    0.952    100    1    9.6    1.92    0    0    0    0    0    0    0    0    0    0    0;
    134    24    -2.07435702    13    -9    1.015    100    1    25    5    0    0    0    0    0    0    0    0    0    0    0;
    1204    28.44    -20.7041748    25    -20    0.964    100    1    42    8.4    0    0    0    0    0    0    0    0    0    0    0;
    1204    8.4    -20.7041748    25    -20    0.964    100    1    42    8.4    0    0    0    0    0    0    0    0    0    0    0;
...
];

%% branch data
%    fbus    tbus    r    x    b    rateA    rateB    rateC    ratio    angle    status    angmin    angmax    Pf    Qf    Pt    Qt
mpc.branch = [
    639    1    0.005799    0.010615    0.0075    0    0    0    1    0    1    0    0    -18.4816    -0.7761    18.5000    0.0000;
    2771    2    0.002607    0.017462    0.0324    540    540    540    1    0    1    0    0    11.8032    -3.0548    -11.8000    -0.6000;
    2575    3    2.1e-05    0.000125    0.1386    737    737    737    1    0    1    0    0    200.0000    53.5106    -199.9922    -69.9155;
    875    3    0.000145    0.001877    0.0635    2487    2487    2487    1    0    1    0    0    -355.7289    -100.6242    355.8956    95.2611;
    1710    3    0.000319    0.003234    0.0838    1841    1841    1841    1    0    1    0    0    15.9187    -66.5121    -15.9078    56.6933;
    46    3    2.1e-05    0.000125    0.1386    737    737    737    1    0    1    0    0    140.0000    65.6141    -139.9956    -82.0389;
    1073    4    0.037541    0.100529    0.0011    0    0    0    1    0    1    0    0    -32.6457    6.8881    33.0643    -5.8777;
    1533    4    0.090199    0.211388    0.0023    0    0    0    1    0    1    0    0    -3.5165    -1.6320    3.5297    1.4321;
    1658    4    0.09801    0.267574    0    0    0    0    1    0    1    0    0    37.9116    -0.8486    -36.5940    4.4457;
    1370    5    0.009383    0.019753    0    0    0    0    1    0    1    0    0    0.2000    -0.2000    -0.2000    0.2000;
    1370    6    0.001975    0.004444    0    0    0    0    1    0    1    0    0    5.6087    -18.9804    -5.6000    19.0000;
    199    7    0.006163    0.041067    0.0759    446    446    446    1    0    1    0    0    53.0519    -30.9366    -52.8584    23.6384;
    880    7    0.000652    0.004369    0.0081    558    558    558    1    0    1    0    0    170.9138    31.4677    -170.7416    -31.2384;
    1061    8    0.067019    0.137566    0.0037    0    0    0    1    0    1    0    0    45.0627    -4.0076    -43.7776    6.2591;
    1223    8    0.032754    0.088939    0.0039    0    0    0    1    0    1    0    0    11.8116    6.3535    -11.7541    -6.5995;
    1223    8    0.030184    0.080096    0.0053    0    0    0    1    0    1    0    0    13.1332    6.8855    -13.0683    -7.2596;
    1371    10    0.009733    0.034089    0.0185    0    0    0    1    0    1    0    0    62.1091    22.1499    -61.7353    -22.9329;
    147    11    0.000277    0.002015    0.003    288    288    288    1    0    1    0    0    77.9579    -37.9989    -77.9390    37.8066;
    387    2571    0.00881    0.033995    0.0607    289    289    289    1    0    1    0    0    -92.8886    2.2094    93.5928    -6.1088;
    437    2571    0.004642    0.019832    0.0354    255    255    255    1    0    1    0    0    24.1964    -33.6199    -24.1285    30.0457;
    955    11    0.008861    0.03506    0.0623    288    288    288    1    0    1    0    0    -26.9649    -3.0164    27.0238    -3.5907;
    991    11    0.006993    0.032869    0.0557    255    255    255    1    0    1    0    0    11.9229    -34.5697    -11.8492    28.8412;
    1774    2571    0.002173    0.008731    0.0152    0    0    0    1    0    1    0    0    -41.9797    -24.0602    42.0256    22.5816;
    1817    11    0.00077    0.003121    0.0051    0    0    0    1    0    1    0    0    -4.3846    31.3391    4.3917    -31.8718;
    2092    2571    0.004109    0.016138    0.0284    288    288    288    1    0    1    0    0    19.7422    2.5342    -19.7270    -5.5938;
    2591    12    8.3e-05    0.000907    0.0202    1034    1034    1034    1    0    1    0    0    175.7800    -17.8567    -175.7569    15.8509;
    419    12    0.000552    0.006726    0.0939    1786    1786    1786    1    0    1    0    0    -111.7751    46.1509    111.8495    -55.7710;
    808    12    0.000512    0.008012    0.2455    2462    2462    2462    1    0    1    0    0    547.7299    113.1858    -546.3128    -118.7586;
    1158    12    0.001107    0.00918    0.1906    1644    1644    1644    1    0    1    0    0    -160.8101    24.5754    161.0778    -43.6939;
    148    2572    6.2e-05    0.000741    0.0173    1095    1095    1095    1    0    1    0    0    148.1300    -10.9366    -148.1179    9.1255;
    808    12    0.000512    0.008019    0.2455    2462    2462    2462    1    0    1    0    0    547.2466    113.1056    -545.8320    -118.6977;
    808    2572    0.001153    0.013123    0.1841    1433    1433    1433    1    0    1    0    0    261.5652    16.3631    -260.8674    -29.3414;
    167    13    0.000158    0.000672    0.0719    331    331    331    1    0    1    0    0    14.5004    -6.2212    -14.5001    -1.8749;
    1463    13    4.5e-05    8.9e-05    0.002    268    268    268    1    0    1    0    0    -14.5000    -2.1000    14.5001    1.8749;
    820    14    0.033258    0.090955    0.001    0    0    0    1    0    1    0    0    0.2005    -1.1988    -0.2000    1.1000;
    465    15    0.071303    0.180902    0.0021    0    0    0    1    0    1    0    0    1.0355    -2.3405    -1.0312    2.1377;
    878    15    0.071554    0.18191    0.0021    0    0    0    1    0    1    0    0    9.3314    1.8803    -9.2688    -1.9377;
    2664    16    0.00478    0.028622    0.0547    455    455    455    1    0    1    0    0    77.6454    31.1788    -77.3312    -35.2134;
    451    16    0.00478    0.028583    0.0547    455    455    455    1    0    1    0    0    113.0466    16.7402    -112.4688    -19.1866;
    151    17    0.000257    0.000514    0.0294    0    0    0    1    0    1    0    0    54.5069    9.7195    -54.5000    -13.1000;
    987    18    0.000257    0.002153    0.2147    452    452    452    1    0    1    0    0    -180.3661    -22.6310    180.4397    -1.2404;
    1264    18    0.000277    0.000869    0.0931    481    481    481    1    0    1    0    0    248.1897    11.7974    -248.0397    -21.9596;
    1903    19    0.000756    0.00252    0    0    0    0    1    0    1    0    0    -24.4613    5.1008    24.4657    -5.0860;
    1247    20    0.000237    0.00083    0.1863    268    268    268    1    0    1    0    0    131.3573    43.5076    -131.3158    -64.8728;
    1301    20    0.000178    0.000612    0.1377    268    268    268    1    0    1    0    0    19.1864    -40.7512    -19.1842    24.8728;
    59    21    0.002568    0.011753    0.0203    424    424    424    1    0    1    0    0    38.0658    1.2848    -38.0338    -3.5014;
    1908    21    0.002568    0.011615    0.0228    290    290    290    1    0    1    0    0    0.6363    0.0470    -0.6362    -2.6986;
    591    22    0.102293    0.226757    0.0025    0    0    0    1    0    1    0    0    -13.7000    2.2000    13.9051    -1.9883;
    855    22    0.177551    0.405291    0.0046    0    0    0    1    0    1    0    0    32.7223    -6.0539    -30.8175    9.9394;
    1199    22    0.088264    0.161566    0.0017    0    0    0    1    0    1    0    0    -1.9070    -1.6052    1.9124    1.4490;
    820    23    0.043336    0.11867    0.001    0    0    0    1    0    1    0    0    -15.9005    2.2988    16.0125    -2.0925;
    1059    23    0.067775    0.139834    0.001    0    0    0    1    0    1    0    0    2.2946    3.5962    -2.2822    -3.6722;
    1691    23    0.047367    0.16125    0.0021    0    0    0    1    0    1    0    0    27.3514    4.3090    -27.0039    -3.3416;
    1922    23    0.004031    0.016629    0.001    0    0    0    1    0    1    0    0    37.6833    -2.9721    -37.6263    3.1063;
    1377    24    9.9e-05    0.00077    0.078    379    379    379    1    0    1    0    0    -117.4884    -5.2248    117.5000    -3.9069;
    1377    2573    9.9e-05    0.00077    0.077    379    379    379    1    0    1    0    0    -117.4884    -5.1071    117.5000    -3.9063;
    1908    25    0.000514    0.003437    0.0061    290    290    290    1    0    1    0    0    -0.6363    -0.0470    0.6363    -0.6626;
    1914    25    0.005476    0.036879    0.1255    522    522    522    1    0    1    0    0    -61.6982    -24.8639    61.8956    11.7217;
    59    25    0.000514    0.003457    0.0061    418    418    418    1    0    1    0    0    127.7045    12.4375    -127.6319    -12.6591;
    1138    26    0.003477    0.01118    0.0187    304    304    304    1    0    1    0    0    -15.9834    -2.3574    15.9911    0.2185;
    1409    26    0.000612    0.003121    0.0152    270    270    270    1    0    1    0    0    17.5929    -5.7324    -17.5911    3.9815;
    2755    27    0.013857    0.035525    0.0004    0    0    0    1    0    1    0    0    43.0469    2.8913    -42.8000    -2.3000;
    1514    28    2.4e-05    0.000144    0.0213    701    701    701    1    0    1    0    0    39.4004    13.1488    -39.4000    -15.5000;
    1514    2574    7.1e-05    0.000162    0.0162    251    251    251    1    0    1    0    0    42.2012    10.6129    -42.2000    -12.4000;
    249    29    0.068027    0.173091    0.002    0    0    0    1    0    1    0    0    -17.4319    -2.5986    17.6478    2.9490;
    296    29    0.027211    0.068783    0.001    0    0    0    1    0    1    0    0    -5.4118    -1.1682    5.4201    1.0882;
    776    29    0.03099    0.202822    0.002    0    0    0    1    0    1    0    0    34.8381    6.7537    -34.4678    -4.5371;
    1274    30    0.000257    0.001165    0.002    405    405    405    1    0    1    0    0    72.7150    36.3418    -72.7000    -36.5000;
    1906    31    0.047317    0.131595    0.0015    0    0    0    1    0    1    0    0    0.4310    -1.5603    -0.4300    1.4000;
    2686    32    0.075838    0.224742    0.0027    0    0    0    1    0    1    0    0    -1.7497    -13.4366    1.8867    13.5649;
    648    32    0.028471    0.089695    0.001    0    0    0    1    0    1    0    0    24.5900    17.4013    -24.3556    -16.7711;
    1337    32    0.080373    0.255732    0.003    0    0    0    1    0    1    0    0    -8.6000    -3.9000    8.6689    3.8063;
    2050    32    0.000252    0.000504    0    0    0    0    1    0    1    0    0    0.0000    0.2000    0.0000    -0.2000;
    1907    33    0.000444    0.001136    0    0    0    0    1    0    1    0    0    2.0000    -0.4999    -2.0000    0.5000;
    1370    34    0.057284    0.130864    0    0    0    0    1    0    1    0    0    0.4001    0.0002    -0.4000    -0.0000;
    242    35    0.054749    0.157445    0.0027    0    0    0    1    0    1    0    0    22.9707    -1.6971    -22.6991    2.1923;
    1507    35    0.038549    0.103049    0.0012    0    0    0    1    0    1    0    0    -9.8000    0.5000    9.8356    -0.5303;
    2117    35    0.012598    0.052406    0.0006    0    0    0    1    0    1    0    0    17.5760    4.7630    -17.5365    -4.6620;
    800    36    0.006914    0.020741    0    0    0    0    1    0    1    0    0    1.9010    -3.0971    -1.9000    3.1000;
    712    37    0.032124    0.082892    0.003    0    0    0    1    0    1    0    0    19.8312    7.7747    -19.6868    -7.7030;
    1655    37    0.025573    0.09869    0.0012    0    0    0    1    0    1    0    0    -0.7745    -6.8733    0.7868    6.8030;
    564    38    0.001512    0.005291    0.0064    0    0    0    1    0    1    0    0    -43.9717    -8.9351    44.0000    8.3481;
    637    39    0.005709    0.037926    0.0688    492    492    492    1    0    1    0    0    20.9848    3.0902    -20.9596    -10.5187;
    2032    39    0.001758    0.011654    0.0208    492    492    492    1    0    1    0    0    78.4392    6.6437    -78.3404    -8.2813;
    2585    40    0.001383    0.009462    0.0172    463    463    463    1    0    1    0    0    123.3155    11.1889    -123.1280    -11.8484;
    593    40    0.00156    0.006933    0.0121    432    432    432    1    0    1    0    0    -72.6981    -14.7310    72.7743    13.7089;
    788    40    0.006376    0.028733    0.0506    432    432    432    1    0    1    0    0    82.0118    -26.2711    -81.5988    22.4403;
    1291    40    0.00158    0.010627    0.0192    481    481    481    1    0    1    0    0    -93.1224    23.9105    93.2525    -25.2008;
    1108    41    0.001086    0.003536    0.3766    506    506    506    1    0    1    0    0    44.9215    -35.9123    -44.9000    -6.5000;
    1108    41    0.001086    0.003536    0.3766    506    506    506    1    0    1    0    0    44.9215    -35.9123    -44.9000    -6.5000;
    235    42    0.04059    0.110708    0.0013    0    0    0    1    0    1    0    0    -0.4391    -1.3626    0.4398    1.2286;
    248    42    0.073646    0.225598    0.0087    0    0    0    1    0    1    0    0    -13.3257    -1.9831    13.4556    1.4815;
    285    42    0.02066    0.088687    0.0021    0    0    0    1    0    1    0    0    37.2000    1.5925    -36.9310    -0.6596;
    1933    42    0.019904    0.08516    0.001    0    0    0    1    0    1    0    0    9.2830    7.8846    -9.2551    -7.8709;
...